
OS:Version,
  {c767f18b-2d27-493e-9af3-100ed2342f15}, !- Handle
  3.11.0;                                 !- Version Identifier

OS:Building,
  {4a7fea09-6f63-4f1d-9758-bdbd05ab18bb}, !- Handle
  SmallOfficeBaseline,                    !- Name
  ,                                       !- Building Sector Type
  ,                                       !- North Axis {deg}
  ,                                       !- Nominal Floor to Floor Height {m}
  {92a28c8e-3b76-4aa1-81fd-60374f5e8bdf}, !- Space Type Name
  {8f222b21-083d-4d42-b91b-261d6b6a7da3}, !- Default Construction Set Name
  ;                                       !- Default Schedule Set Name

OS:BuildingStory,
  {cb1e1d64-e28f-4b9e-9da5-3b3494f39d1d}, !- Handle
  Story 1,                                !- Name
  0,                                      !- Nominal Z Coordinate {m}
  4,                                      !- Nominal Floor to Floor Height {m}
  ,                                       !- Default Construction Set Name
  ,                                       !- Default Schedule Set Name
  ;                                       !- Group Rendering Name

OS:Space,
  {7997fa48-a975-4328-9682-84efe91d5d81}, !- Handle
  Story 1 West Perimeter Space,           !- Name
  ,                                       !- Space Type Name
  ,                                       !- Default Construction Set Name
  ,                                       !- Default Schedule Set Name
  -0,                                     !- Direction of Relative North {deg}
  0,                                      !- X Origin {m}
  0,                                      !- Y Origin {m}
  0,                                      !- Z Origin {m}
  {cb1e1d64-e28f-4b9e-9da5-3b3494f39d1d}, !- Building Story Name
  {73b36986-7c4d-46a2-9a6f-49d98b444641}; !- Thermal Zone Name

OS:Surface,
  {7508e0d6-6dbe-45ff-a195-274278e3eb35}, !- Handle
  Story 1 West Perimeter Space Exterior Ground Floor, !- Name
  Floor,                                  !- Surface Type
  ,                                       !- Construction Name
  {7997fa48-a975-4328-9682-84efe91d5d81}, !- Space Name
  Ground,                                 !- Outside Boundary Condition
  ,                                       !- Outside Boundary Condition Object
  NoSun,                                  !- Sun Exposure
  NoWind,                                 !- Wind Exposure
  ,                                       !- View Factor to Ground
  ,                                       !- Number of Vertices
  0, 0, 0,                                !- X,Y,Z Vertex 1 {m}
  0, 50, 0,                               !- X,Y,Z Vertex 2 {m}
  3, 47, 0,                               !- X,Y,Z Vertex 3 {m}
  3, 3, 0;                                !- X,Y,Z Vertex 4 {m}

OS:Surface,
  {dfa3a1b4-d5ad-4f4a-ab05-e295f1408d19}, !- Handle
  Story 1 West Perimeter Space Exterior Wall, !- Name
  Wall,                                   !- Surface Type
  ,                                       !- Construction Name
  {7997fa48-a975-4328-9682-84efe91d5d81}, !- Space Name
  Outdoors,                               !- Outside Boundary Condition
  ,                                       !- Outside Boundary Condition Object
  SunExposed,                             !- Sun Exposure
  WindExposed,                            !- Wind Exposure
  ,                                       !- View Factor to Ground
  ,                                       !- Number of Vertices
  0, 0, 4,                                !- X,Y,Z Vertex 1 {m}
  0, 50, 4,                               !- X,Y,Z Vertex 2 {m}
  0, 50, 0,                               !- X,Y,Z Vertex 3 {m}
  0, 0, 0;                                !- X,Y,Z Vertex 4 {m}

OS:Surface,
  {410b4afd-e02a-4fc4-a2c4-c4a395ff2f61}, !- Handle
  Story 1 West Perimeter Space to Story 1 North Perimeter Space Interior Wall, !- Name
  Wall,                                   !- Surface Type
  ,                                       !- Construction Name
  {7997fa48-a975-4328-9682-84efe91d5d81}, !- Space Name
  Surface,                                !- Outside Boundary Condition
  {413b6659-7f28-4682-b22c-3527942d91a1}, !- Outside Boundary Condition Object
  NoSun,                                  !- Sun Exposure
  NoWind,                                 !- Wind Exposure
  ,                                       !- View Factor to Ground
  ,                                       !- Number of Vertices
  0, 50, 4,                               !- X,Y,Z Vertex 1 {m}
  3, 47, 4,                               !- X,Y,Z Vertex 2 {m}
  3, 47, 0,                               !- X,Y,Z Vertex 3 {m}
  0, 50, 0;                               !- X,Y,Z Vertex 4 {m}

OS:Surface,
  {be117b42-568e-47ef-8bfa-9479ac606301}, !- Handle
  Story 1 West Perimeter Space to Story 1 Core Space Interior Wall, !- Name
  Wall,                                   !- Surface Type
  ,                                       !- Construction Name
  {7997fa48-a975-4328-9682-84efe91d5d81}, !- Space Name
  Surface,                                !- Outside Boundary Condition
  {0d20565b-dbcf-4c71-9b4f-ee51d470ed0c}, !- Outside Boundary Condition Object
  NoSun,                                  !- Sun Exposure
  NoWind,                                 !- Wind Exposure
  ,                                       !- View Factor to Ground
  ,                                       !- Number of Vertices
  3, 47, 4,                               !- X,Y,Z Vertex 1 {m}
  3, 3, 4,                                !- X,Y,Z Vertex 2 {m}
  3, 3, 0,                                !- X,Y,Z Vertex 3 {m}
  3, 47, 0;                               !- X,Y,Z Vertex 4 {m}

OS:Surface,
  {830f518e-9478-4d1a-84fc-40991157c99c}, !- Handle
  Story 1 West Perimeter Space to Story 1 South Perimeter Space Interior Wall, !- Name
  Wall,                                   !- Surface Type
  ,                                       !- Construction Name
  {7997fa48-a975-4328-9682-84efe91d5d81}, !- Space Name
  Surface,                                !- Outside Boundary Condition
  {83e8ba24-bd7f-40ac-a299-412d55d21f63}, !- Outside Boundary Condition Object
  NoSun,                                  !- Sun Exposure
  NoWind,                                 !- Wind Exposure
  ,                                       !- View Factor to Ground
  ,                                       !- Number of Vertices
  3, 3, 4,                                !- X,Y,Z Vertex 1 {m}
  0, 0, 4,                                !- X,Y,Z Vertex 2 {m}
  0, 0, 0,                                !- X,Y,Z Vertex 3 {m}
  3, 3, 0;                                !- X,Y,Z Vertex 4 {m}

OS:Surface,
  {f949e7d6-cb54-4d25-8e67-65a82f1994b6}, !- Handle
  Story 1 West Perimeter Space to Story 2 West Perimeter Space Interior RoofCeiling, !- Name
  RoofCeiling,                            !- Surface Type
  ,                                       !- Construction Name
  {7997fa48-a975-4328-9682-84efe91d5d81}, !- Space Name
  Surface,                                !- Outside Boundary Condition
  {1dddaf6f-1dfb-45bf-84bc-d1a6a7431677}, !- Outside Boundary Condition Object
  NoSun,                                  !- Sun Exposure
  NoWind,                                 !- Wind Exposure
  ,                                       !- View Factor to Ground
  ,                                       !- Number of Vertices
  3, 3, 4,                                !- X,Y,Z Vertex 1 {m}
  3, 47, 4,                               !- X,Y,Z Vertex 2 {m}
  0, 50, 4,                               !- X,Y,Z Vertex 3 {m}
  0, 0, 4;                                !- X,Y,Z Vertex 4 {m}

OS:Space,
  {51340a8d-d623-4c44-b2a6-3196ca8d6e5b}, !- Handle
  Story 1 North Perimeter Space,          !- Name
  ,                                       !- Space Type Name
  ,                                       !- Default Construction Set Name
  ,                                       !- Default Schedule Set Name
  -0,                                     !- Direction of Relative North {deg}
  3,                                      !- X Origin {m}
  47,                                     !- Y Origin {m}
  0,                                      !- Z Origin {m}
  {cb1e1d64-e28f-4b9e-9da5-3b3494f39d1d}, !- Building Story Name
  {a5d41492-4565-4838-8972-f9f82faa4753}; !- Thermal Zone Name

OS:Surface,
  {21747522-e21a-4e8e-87a7-4cf49cdb8742}, !- Handle
  Story 1 North Perimeter Space Exterior Ground Floor, !- Name
  Floor,                                  !- Surface Type
  ,                                       !- Construction Name
  {51340a8d-d623-4c44-b2a6-3196ca8d6e5b}, !- Space Name
  Ground,                                 !- Outside Boundary Condition
  ,                                       !- Outside Boundary Condition Object
  NoSun,                                  !- Sun Exposure
  NoWind,                                 !- Wind Exposure
  ,                                       !- View Factor to Ground
  ,                                       !- Number of Vertices
  -3, 3, 0,                               !- X,Y,Z Vertex 1 {m}
  97, 3, 0,                               !- X,Y,Z Vertex 2 {m}
  94, 0, 0,                               !- X,Y,Z Vertex 3 {m}
  0, 0, 0;                                !- X,Y,Z Vertex 4 {m}

OS:Surface,
  {f4ac0149-2886-48d7-8eca-a31ddc5e7c81}, !- Handle
  Story 1 North Perimeter Space Exterior Wall, !- Name
  Wall,                                   !- Surface Type
  ,                                       !- Construction Name
  {51340a8d-d623-4c44-b2a6-3196ca8d6e5b}, !- Space Name
  Outdoors,                               !- Outside Boundary Condition
  ,                                       !- Outside Boundary Condition Object
  SunExposed,                             !- Sun Exposure
  WindExposed,                            !- Wind Exposure
  ,                                       !- View Factor to Ground
  ,                                       !- Number of Vertices
  -3, 3, 4,                               !- X,Y,Z Vertex 1 {m}
  97, 3, 4,                               !- X,Y,Z Vertex 2 {m}
  97, 3, 0,                               !- X,Y,Z Vertex 3 {m}
  -3, 3, 0;                               !- X,Y,Z Vertex 4 {m}

OS:Surface,
  {ca31b946-70c5-4399-bb52-4be3157f3e93}, !- Handle
  Story 1 North Perimeter Space to Story 1 East Perimeter Space Interior Wall, !- Name
  Wall,                                   !- Surface Type
  ,                                       !- Construction Name
  {51340a8d-d623-4c44-b2a6-3196ca8d6e5b}, !- Space Name
  Surface,                                !- Outside Boundary Condition
  {7b69ffa3-d2e3-4867-a3fd-1682a7c3f6c2}, !- Outside Boundary Condition Object
  NoSun,                                  !- Sun Exposure
  NoWind,                                 !- Wind Exposure
  ,                                       !- View Factor to Ground
  ,                                       !- Number of Vertices
  97, 3, 4,                               !- X,Y,Z Vertex 1 {m}
  94, 0, 4,                               !- X,Y,Z Vertex 2 {m}
  94, 0, 0,                               !- X,Y,Z Vertex 3 {m}
  97, 3, 0;                               !- X,Y,Z Vertex 4 {m}

OS:Surface,
  {65f4a3c9-9f5d-4dc8-82ac-b7d022ac99f7}, !- Handle
  Story 1 North Perimeter Space to Story 1 Core Space Interior Wall, !- Name
  Wall,                                   !- Surface Type
  ,                                       !- Construction Name
  {51340a8d-d623-4c44-b2a6-3196ca8d6e5b}, !- Space Name
  Surface,                                !- Outside Boundary Condition
  {fd130e5e-3d38-4569-aaec-89a7be5f2ed2}, !- Outside Boundary Condition Object
  NoSun,                                  !- Sun Exposure
  NoWind,                                 !- Wind Exposure
  ,                                       !- View Factor to Ground
  ,                                       !- Number of Vertices
  94, 0, 4,                               !- X,Y,Z Vertex 1 {m}
  0, 0, 4,                                !- X,Y,Z Vertex 2 {m}
  0, 0, 0,                                !- X,Y,Z Vertex 3 {m}
  94, 0, 0;                               !- X,Y,Z Vertex 4 {m}

OS:Surface,
  {413b6659-7f28-4682-b22c-3527942d91a1}, !- Handle
  Story 1 North Perimeter Space to Story 1 West Perimeter Space Interior Wall, !- Name
  Wall,                                   !- Surface Type
  ,                                       !- Construction Name
  {51340a8d-d623-4c44-b2a6-3196ca8d6e5b}, !- Space Name
  Surface,                                !- Outside Boundary Condition
  {410b4afd-e02a-4fc4-a2c4-c4a395ff2f61}, !- Outside Boundary Condition Object
  NoSun,                                  !- Sun Exposure
  NoWind,                                 !- Wind Exposure
  ,                                       !- View Factor to Ground
  ,                                       !- Number of Vertices
  0, 0, 4,                                !- X,Y,Z Vertex 1 {m}
  -3, 3, 4,                               !- X,Y,Z Vertex 2 {m}
  -3, 3, 0,                               !- X,Y,Z Vertex 3 {m}
  0, 0, 0;                                !- X,Y,Z Vertex 4 {m}

OS:Surface,
  {6b9dfedc-d077-441a-9231-562b73970c75}, !- Handle
  Story 1 North Perimeter Space to Story 2 North Perimeter Space Interior RoofCeiling, !- Name
  RoofCeiling,                            !- Surface Type
  ,                                       !- Construction Name
  {51340a8d-d623-4c44-b2a6-3196ca8d6e5b}, !- Space Name
  Surface,                                !- Outside Boundary Condition
  {ed1136ec-577e-4fd2-8f77-3aceaa38c757}, !- Outside Boundary Condition Object
  NoSun,                                  !- Sun Exposure
  NoWind,                                 !- Wind Exposure
  ,                                       !- View Factor to Ground
  ,                                       !- Number of Vertices
  0, 0, 4,                                !- X,Y,Z Vertex 1 {m}
  94, 0, 4,                               !- X,Y,Z Vertex 2 {m}
  97, 3, 4,                               !- X,Y,Z Vertex 3 {m}
  -3, 3, 4;                               !- X,Y,Z Vertex 4 {m}

OS:Space,
  {87d8a518-0ac6-4ecf-a445-54b1d2c72a8b}, !- Handle
  Story 1 East Perimeter Space,           !- Name
  ,                                       !- Space Type Name
  ,                                       !- Default Construction Set Name
  ,                                       !- Default Schedule Set Name
  -0,                                     !- Direction of Relative North {deg}
  97,                                     !- X Origin {m}
  3,                                      !- Y Origin {m}
  0,                                      !- Z Origin {m}
  {cb1e1d64-e28f-4b9e-9da5-3b3494f39d1d}, !- Building Story Name
  {23854e4c-a153-4428-a6cf-a300d71db50f}; !- Thermal Zone Name

OS:Surface,
  {e78fd164-ab21-4933-b26c-f02dd69e46ec}, !- Handle
  Story 1 East Perimeter Space Exterior Ground Floor, !- Name
  Floor,                                  !- Surface Type
  ,                                       !- Construction Name
  {87d8a518-0ac6-4ecf-a445-54b1d2c72a8b}, !- Space Name
  Ground,                                 !- Outside Boundary Condition
  ,                                       !- Outside Boundary Condition Object
  NoSun,                                  !- Sun Exposure
  NoWind,                                 !- Wind Exposure
  ,                                       !- View Factor to Ground
  ,                                       !- Number of Vertices
  3, 47, 0,                               !- X,Y,Z Vertex 1 {m}
  3, -3, 0,                               !- X,Y,Z Vertex 2 {m}
  0, 0, 0,                                !- X,Y,Z Vertex 3 {m}
  0, 44, 0;                               !- X,Y,Z Vertex 4 {m}

OS:Surface,
  {e198b062-c3c3-4a9a-8507-8f51b3f20891}, !- Handle
  Story 1 East Perimeter Space Exterior Wall, !- Name
  Wall,                                   !- Surface Type
  ,                                       !- Construction Name
  {87d8a518-0ac6-4ecf-a445-54b1d2c72a8b}, !- Space Name
  Outdoors,                               !- Outside Boundary Condition
  ,                                       !- Outside Boundary Condition Object
  SunExposed,                             !- Sun Exposure
  WindExposed,                            !- Wind Exposure
  ,                                       !- View Factor to Ground
  ,                                       !- Number of Vertices
  3, 47, 4,                               !- X,Y,Z Vertex 1 {m}
  3, -3, 4,                               !- X,Y,Z Vertex 2 {m}
  3, -3, 0,                               !- X,Y,Z Vertex 3 {m}
  3, 47, 0;                               !- X,Y,Z Vertex 4 {m}

OS:Surface,
  {0290a77e-ea03-49e6-b944-5cf989928964}, !- Handle
  Story 1 East Perimeter Space to Story 1 South Perimeter Space Interior Wall, !- Name
  Wall,                                   !- Surface Type
  ,                                       !- Construction Name
  {87d8a518-0ac6-4ecf-a445-54b1d2c72a8b}, !- Space Name
  Surface,                                !- Outside Boundary Condition
  {ad23ecf0-55ab-4145-894a-e6ed5e5b89db}, !- Outside Boundary Condition Object
  NoSun,                                  !- Sun Exposure
  NoWind,                                 !- Wind Exposure
  ,                                       !- View Factor to Ground
  ,                                       !- Number of Vertices
  3, -3, 4,                               !- X,Y,Z Vertex 1 {m}
  0, 0, 4,                                !- X,Y,Z Vertex 2 {m}
  0, 0, 0,                                !- X,Y,Z Vertex 3 {m}
  3, -3, 0;                               !- X,Y,Z Vertex 4 {m}

OS:Surface,
  {6258f319-e28d-43c7-b78c-0cca468f592b}, !- Handle
  Story 1 East Perimeter Space to Story 1 Core Space Interior Wall, !- Name
  Wall,                                   !- Surface Type
  ,                                       !- Construction Name
  {87d8a518-0ac6-4ecf-a445-54b1d2c72a8b}, !- Space Name
  Surface,                                !- Outside Boundary Condition
  {60054945-9b3a-4541-bf78-810d4d03ab8a}, !- Outside Boundary Condition Object
  NoSun,                                  !- Sun Exposure
  NoWind,                                 !- Wind Exposure
  ,                                       !- View Factor to Ground
  ,                                       !- Number of Vertices
  0, 0, 4,                                !- X,Y,Z Vertex 1 {m}
  0, 44, 4,                               !- X,Y,Z Vertex 2 {m}
  0, 44, 0,                               !- X,Y,Z Vertex 3 {m}
  0, 0, 0;                                !- X,Y,Z Vertex 4 {m}

OS:Surface,
  {7b69ffa3-d2e3-4867-a3fd-1682a7c3f6c2}, !- Handle
  Story 1 East Perimeter Space to Story 1 North Perimeter Space Interior Wall, !- Name
  Wall,                                   !- Surface Type
  ,                                       !- Construction Name
  {87d8a518-0ac6-4ecf-a445-54b1d2c72a8b}, !- Space Name
  Surface,                                !- Outside Boundary Condition
  {ca31b946-70c5-4399-bb52-4be3157f3e93}, !- Outside Boundary Condition Object
  NoSun,                                  !- Sun Exposure
  NoWind,                                 !- Wind Exposure
  ,                                       !- View Factor to Ground
  ,                                       !- Number of Vertices
  0, 44, 4,                               !- X,Y,Z Vertex 1 {m}
  3, 47, 4,                               !- X,Y,Z Vertex 2 {m}
  3, 47, 0,                               !- X,Y,Z Vertex 3 {m}
  0, 44, 0;                               !- X,Y,Z Vertex 4 {m}

OS:Surface,
  {59e8802c-f18a-4a99-8c68-830d0cfba2c5}, !- Handle
  Story 1 East Perimeter Space to Story 2 East Perimeter Space Interior RoofCeiling, !- Name
  RoofCeiling,                            !- Surface Type
  ,                                       !- Construction Name
  {87d8a518-0ac6-4ecf-a445-54b1d2c72a8b}, !- Space Name
  Surface,                                !- Outside Boundary Condition
  {d15a352d-9ad8-469d-9dac-ec997962d364}, !- Outside Boundary Condition Object
  NoSun,                                  !- Sun Exposure
  NoWind,                                 !- Wind Exposure
  ,                                       !- View Factor to Ground
  ,                                       !- Number of Vertices
  0, 44, 4,                               !- X,Y,Z Vertex 1 {m}
  0, 0, 4,                                !- X,Y,Z Vertex 2 {m}
  3, -3, 4,                               !- X,Y,Z Vertex 3 {m}
  3, 47, 4;                               !- X,Y,Z Vertex 4 {m}

OS:Space,
  {954726cb-40bb-4597-ba49-c6ba8d8e374d}, !- Handle
  Story 1 South Perimeter Space,          !- Name
  ,                                       !- Space Type Name
  ,                                       !- Default Construction Set Name
  ,                                       !- Default Schedule Set Name
  -0,                                     !- Direction of Relative North {deg}
  0,                                      !- X Origin {m}
  0,                                      !- Y Origin {m}
  0,                                      !- Z Origin {m}
  {cb1e1d64-e28f-4b9e-9da5-3b3494f39d1d}, !- Building Story Name
  {69b4ef82-e217-42e0-8eba-cde4479df457}; !- Thermal Zone Name

OS:Surface,
  {b907aa0a-2c28-4efd-8aea-8780c55ddc6d}, !- Handle
  Story 1 South Perimeter Space Exterior Ground Floor, !- Name
  Floor,                                  !- Surface Type
  ,                                       !- Construction Name
  {954726cb-40bb-4597-ba49-c6ba8d8e374d}, !- Space Name
  Ground,                                 !- Outside Boundary Condition
  ,                                       !- Outside Boundary Condition Object
  NoSun,                                  !- Sun Exposure
  NoWind,                                 !- Wind Exposure
  ,                                       !- View Factor to Ground
  ,                                       !- Number of Vertices
  100, 0, 0,                              !- X,Y,Z Vertex 1 {m}
  0, 0, 0,                                !- X,Y,Z Vertex 2 {m}
  3, 3, 0,                                !- X,Y,Z Vertex 3 {m}
  97, 3, 0;                               !- X,Y,Z Vertex 4 {m}

OS:Surface,
  {d6e0dc02-e0be-4c72-97ee-66b249d91ec7}, !- Handle
  Story 1 South Perimeter Space Exterior Wall, !- Name
  Wall,                                   !- Surface Type
  ,                                       !- Construction Name
  {954726cb-40bb-4597-ba49-c6ba8d8e374d}, !- Space Name
  Outdoors,                               !- Outside Boundary Condition
  ,                                       !- Outside Boundary Condition Object
  SunExposed,                             !- Sun Exposure
  WindExposed,                            !- Wind Exposure
  ,                                       !- View Factor to Ground
  ,                                       !- Number of Vertices
  100, 0, 4,                              !- X,Y,Z Vertex 1 {m}
  0, 0, 4,                                !- X,Y,Z Vertex 2 {m}
  0, 0, 0,                                !- X,Y,Z Vertex 3 {m}
  100, 0, 0;                              !- X,Y,Z Vertex 4 {m}

OS:Surface,
  {83e8ba24-bd7f-40ac-a299-412d55d21f63}, !- Handle
  Story 1 South Perimeter Space to Story 1 West Perimeter Space Interior Wall, !- Name
  Wall,                                   !- Surface Type
  ,                                       !- Construction Name
  {954726cb-40bb-4597-ba49-c6ba8d8e374d}, !- Space Name
  Surface,                                !- Outside Boundary Condition
  {830f518e-9478-4d1a-84fc-40991157c99c}, !- Outside Boundary Condition Object
  NoSun,                                  !- Sun Exposure
  NoWind,                                 !- Wind Exposure
  ,                                       !- View Factor to Ground
  ,                                       !- Number of Vertices
  0, 0, 4,                                !- X,Y,Z Vertex 1 {m}
  3, 3, 4,                                !- X,Y,Z Vertex 2 {m}
  3, 3, 0,                                !- X,Y,Z Vertex 3 {m}
  0, 0, 0;                                !- X,Y,Z Vertex 4 {m}

OS:Surface,
  {827aa376-0599-4b92-b39d-725bd64c3380}, !- Handle
  Story 1 South Perimeter Space to Story 1 Core Space Interior Wall, !- Name
  Wall,                                   !- Surface Type
  ,                                       !- Construction Name
  {954726cb-40bb-4597-ba49-c6ba8d8e374d}, !- Space Name
  Surface,                                !- Outside Boundary Condition
  {b85d9d57-1e2a-4749-9bee-5723c0b87350}, !- Outside Boundary Condition Object
  NoSun,                                  !- Sun Exposure
  NoWind,                                 !- Wind Exposure
  ,                                       !- View Factor to Ground
  ,                                       !- Number of Vertices
  3, 3, 4,                                !- X,Y,Z Vertex 1 {m}
  97, 3, 4,                               !- X,Y,Z Vertex 2 {m}
  97, 3, 0,                               !- X,Y,Z Vertex 3 {m}
  3, 3, 0;                                !- X,Y,Z Vertex 4 {m}

OS:Surface,
  {ad23ecf0-55ab-4145-894a-e6ed5e5b89db}, !- Handle
  Story 1 South Perimeter Space to Story 1 East Perimeter Space Interior Wall, !- Name
  Wall,                                   !- Surface Type
  ,                                       !- Construction Name
  {954726cb-40bb-4597-ba49-c6ba8d8e374d}, !- Space Name
  Surface,                                !- Outside Boundary Condition
  {0290a77e-ea03-49e6-b944-5cf989928964}, !- Outside Boundary Condition Object
  NoSun,                                  !- Sun Exposure
  NoWind,                                 !- Wind Exposure
  ,                                       !- View Factor to Ground
  ,                                       !- Number of Vertices
  97, 3, 4,                               !- X,Y,Z Vertex 1 {m}
  100, 0, 4,                              !- X,Y,Z Vertex 2 {m}
  100, 0, 0,                              !- X,Y,Z Vertex 3 {m}
  97, 3, 0;                               !- X,Y,Z Vertex 4 {m}

OS:Surface,
  {f6c56af6-be43-49f4-bbbf-bae9d37f5589}, !- Handle
  Story 1 South Perimeter Space to Story 2 South Perimeter Space Interior RoofCeiling, !- Name
  RoofCeiling,                            !- Surface Type
  ,                                       !- Construction Name
  {954726cb-40bb-4597-ba49-c6ba8d8e374d}, !- Space Name
  Surface,                                !- Outside Boundary Condition
  {69d1700a-c7fe-425a-82c7-657a20cd34d4}, !- Outside Boundary Condition Object
  NoSun,                                  !- Sun Exposure
  NoWind,                                 !- Wind Exposure
  ,                                       !- View Factor to Ground
  ,                                       !- Number of Vertices
  97, 3, 4,                               !- X,Y,Z Vertex 1 {m}
  3, 3, 4,                                !- X,Y,Z Vertex 2 {m}
  0, 0, 4,                                !- X,Y,Z Vertex 3 {m}
  100, 0, 4;                              !- X,Y,Z Vertex 4 {m}

OS:Space,
  {73d4de40-b113-42a3-a892-d7917957c42d}, !- Handle
  Story 1 Core Space,                     !- Name
  ,                                       !- Space Type Name
  ,                                       !- Default Construction Set Name
  ,                                       !- Default Schedule Set Name
  -0,                                     !- Direction of Relative North {deg}
  3,                                      !- X Origin {m}
  3,                                      !- Y Origin {m}
  0,                                      !- Z Origin {m}
  {cb1e1d64-e28f-4b9e-9da5-3b3494f39d1d}, !- Building Story Name
  {92e6f468-d2b4-4101-ae18-22d1e4fcce6f}; !- Thermal Zone Name

OS:Surface,
  {2cb22cc3-06d8-46cd-a99a-878543fe71f5}, !- Handle
  Story 1 Core Space Exterior Ground Floor, !- Name
  Floor,                                  !- Surface Type
  ,                                       !- Construction Name
  {73d4de40-b113-42a3-a892-d7917957c42d}, !- Space Name
  Ground,                                 !- Outside Boundary Condition
  ,                                       !- Outside Boundary Condition Object
  NoSun,                                  !- Sun Exposure
  NoWind,                                 !- Wind Exposure
  ,                                       !- View Factor to Ground
  ,                                       !- Number of Vertices
  0, 0, 0,                                !- X,Y,Z Vertex 1 {m}
  0, 44, 0,                               !- X,Y,Z Vertex 2 {m}
  94, 44, 0,                              !- X,Y,Z Vertex 3 {m}
  94, 0, 0;                               !- X,Y,Z Vertex 4 {m}

OS:Surface,
  {0d20565b-dbcf-4c71-9b4f-ee51d470ed0c}, !- Handle
  Story 1 Core Space to Story 1 West Perimeter Space Interior Wall, !- Name
  Wall,                                   !- Surface Type
  ,                                       !- Construction Name
  {73d4de40-b113-42a3-a892-d7917957c42d}, !- Space Name
  Surface,                                !- Outside Boundary Condition
  {be117b42-568e-47ef-8bfa-9479ac606301}, !- Outside Boundary Condition Object
  NoSun,                                  !- Sun Exposure
  NoWind,                                 !- Wind Exposure
  ,                                       !- View Factor to Ground
  ,                                       !- Number of Vertices
  0, 0, 4,                                !- X,Y,Z Vertex 1 {m}
  0, 44, 4,                               !- X,Y,Z Vertex 2 {m}
  0, 44, 0,                               !- X,Y,Z Vertex 3 {m}
  0, 0, 0;                                !- X,Y,Z Vertex 4 {m}

OS:Surface,