
OS:Version,
  {7fab4fa8-4402-4324-b7ed-f2add9d1a500}, !- Handle
  3.11.0;                                 !- Version Identifier

OS:Building,
  {a920d0cf-c735-4b8d-8866-e25484da8acd}, !- Handle
  smalloffice_schedule_test,              !- Name
  ,                                       !- Building Sector Type
  ,                                       !- North Axis {deg}
  ,                                       !- Nominal Floor to Floor Height {m}
  {24b0949d-6788-4559-a533-877859db877d}, !- Space Type Name
  {9500b498-3fe0-4d9f-8e68-a7029ce6ba13}, !- Default Construction Set Name
  ;                                       !- Default Schedule Set Name

OS:BuildingStory,
  {6932c5e2-f66c-40a1-a35d-f650eaa344dd}, !- Handle
  Story 1,                                !- Name
  0,                                      !- Nominal Z Coordinate {m}
  4,                                      !- Nominal Floor to Floor Height {m}
  ,                                       !- Default Construction Set Name
  ,                                       !- Default Schedule Set Name
  ;                                       !- Group Rendering Name

OS:Space,
  {9e0c30b8-2023-4075-8433-ecf0c083a953}, !- Handle
  Story 1 West Perimeter Space,           !- Name
  ,                                       !- Space Type Name
  ,                                       !- Default Construction Set Name
  ,                                       !- Default Schedule Set Name
  -0,                                     !- Direction of Relative North {deg}
  0,                                      !- X Origin {m}
  0,                                      !- Y Origin {m}
  0,                                      !- Z Origin {m}
  {6932c5e2-f66c-40a1-a35d-f650eaa344dd}, !- Building Story Name
  {0d50bcbf-7bae-4791-90bb-9ead3bc9a94d}; !- Thermal Zone Name

OS:Surface,
  {ed366e4d-db35-4f6a-86f4-84aa48debd7f}, !- Handle
  Story 1 West Perimeter Space Exterior Ground Floor, !- Name
  Floor,                                  !- Surface Type
  ,                                       !- Construction Name
  {9e0c30b8-2023-4075-8433-ecf0c083a953}, !- Space Name
  Ground,                                 !- Outside Boundary Condition
  ,                                       !- Outside Boundary Condition Object
  NoSun,                                  !- Sun Exposure
  NoWind,                                 !- Wind Exposure
  ,                                       !- View Factor to Ground
  ,                                       !- Number of Vertices
  0, 0, 0,                                !- X,Y,Z Vertex 1 {m}
  0, 50, 0,                               !- X,Y,Z Vertex 2 {m}
  3, 47, 0,                               !- X,Y,Z Vertex 3 {m}
  3, 3, 0;                                !- X,Y,Z Vertex 4 {m}

OS:Surface,
  {7427309f-7266-4ed5-90d4-6caae1772947}, !- Handle
  Story 1 West Perimeter Space Exterior Wall, !- Name
  Wall,                                   !- Surface Type
  ,                                       !- Construction Name
  {9e0c30b8-2023-4075-8433-ecf0c083a953}, !- Space Name
  Outdoors,                               !- Outside Boundary Condition
  ,                                       !- Outside Boundary Condition Object
  SunExposed,                             !- Sun Exposure
  WindExposed,                            !- Wind Exposure
  ,                                       !- View Factor to Ground
  ,                                       !- Number of Vertices
  0, 0, 4,                                !- X,Y,Z Vertex 1 {m}
  0, 50, 4,                               !- X,Y,Z Vertex 2 {m}
  0, 50, 0,                               !- X,Y,Z Vertex 3 {m}
  0, 0, 0;                                !- X,Y,Z Vertex 4 {m}

OS:Surface,
  {bd9791a8-e713-47a5-89c7-74a8fcb0b4b0}, !- Handle
  Story 1 West Perimeter Space to Story 1 North Perimeter Space Interior Wall, !- Name
  Wall,                                   !- Surface Type
  ,                                       !- Construction Name
  {9e0c30b8-2023-4075-8433-ecf0c083a953}, !- Space Name
  Surface,                                !- Outside Boundary Condition
  {1f825a72-afb1-45f2-ac4d-fef4942ee2d4}, !- Outside Boundary Condition Object
  NoSun,                                  !- Sun Exposure
  NoWind,                                 !- Wind Exposure
  ,                                       !- View Factor to Ground
  ,                                       !- Number of Vertices
  0, 50, 4,                               !- X,Y,Z Vertex 1 {m}
  3, 47, 4,                               !- X,Y,Z Vertex 2 {m}
  3, 47, 0,                               !- X,Y,Z Vertex 3 {m}
  0, 50, 0;                               !- X,Y,Z Vertex 4 {m}

OS:Surface,
  {2a558b5c-2ad2-4896-8455-8dc4d863e56e}, !- Handle
  Story 1 West Perimeter Space to Story 1 Core Space Interior Wall, !- Name
  Wall,                                   !- Surface Type
  ,                                       !- Construction Name
  {9e0c30b8-2023-4075-8433-ecf0c083a953}, !- Space Name
  Surface,                                !- Outside Boundary Condition
  {2d79c610-9de3-4659-8d74-8d635edb2b7d}, !- Outside Boundary Condition Object
  NoSun,                                  !- Sun Exposure
  NoWind,                                 !- Wind Exposure
  ,                                       !- View Factor to Ground
  ,                                       !- Number of Vertices
  3, 47, 4,                               !- X,Y,Z Vertex 1 {m}
  3, 3, 4,                                !- X,Y,Z Vertex 2 {m}
  3, 3, 0,                                !- X,Y,Z Vertex 3 {m}
  3, 47, 0;                               !- X,Y,Z Vertex 4 {m}

OS:Surface,
  {17f2cdc2-684c-4515-8423-39635a37f4cb}, !- Handle
  Story 1 West Perimeter Space to Story 1 South Perimeter Space Interior Wall, !- Name
  Wall,                                   !- Surface Type
  ,                                       !- Construction Name
  {9e0c30b8-2023-4075-8433-ecf0c083a953}, !- Space Name
  Surface,                                !- Outside Boundary Condition
  {3efec953-5afd-4269-b86c-738a09252fd4}, !- Outside Boundary Condition Object
  NoSun,                                  !- Sun Exposure
  NoWind,                                 !- Wind Exposure
  ,                                       !- View Factor to Ground
  ,                                       !- Number of Vertices
  3, 3, 4,                                !- X,Y,Z Vertex 1 {m}
  0, 0, 4,                                !- X,Y,Z Vertex 2 {m}
  0, 0, 0,                                !- X,Y,Z Vertex 3 {m}
  3, 3, 0;                                !- X,Y,Z Vertex 4 {m}

OS:Surface,
  {ab31e2d7-ae33-4883-915d-a37d2ae7516b}, !- Handle
  Story 1 West Perimeter Space Exterior Roof, !- Name
  RoofCeiling,                            !- Surface Type
  ,                                       !- Construction Name
  {9e0c30b8-2023-4075-8433-ecf0c083a953}, !- Space Name
  Outdoors,                               !- Outside Boundary Condition
  ,                                       !- Outside Boundary Condition Object
  SunExposed,                             !- Sun Exposure
  WindExposed,                            !- Wind Exposure
  ,                                       !- View Factor to Ground
  ,                                       !- Number of Vertices
  3, 3, 4,                                !- X,Y,Z Vertex 1 {m}
  3, 47, 4,                               !- X,Y,Z Vertex 2 {m}
  0, 50, 4,                               !- X,Y,Z Vertex 3 {m}
  0, 0, 4;                                !- X,Y,Z Vertex 4 {m}

OS:Space,
  {619b24cf-ae61-4e15-8417-e01c341ab1e0}, !- Handle
  Story 1 North Perimeter Space,          !- Name
  ,                                       !- Space Type Name
  ,                                       !- Default Construction Set Name
  ,                                       !- Default Schedule Set Name
  -0,                                     !- Direction of Relative North {deg}
  3,                                      !- X Origin {m}
  47,                                     !- Y Origin {m}
  0,                                      !- Z Origin {m}
  {6932c5e2-f66c-40a1-a35d-f650eaa344dd}, !- Building Story Name
  {a641ab06-1327-47b3-a276-1e4807731b04}; !- Thermal Zone Name

OS:Surface,
  {94478e47-a1d9-4fc9-87f7-9829ba2763ef}, !- Handle
  Story 1 North Perimeter Space Exterior Ground Floor, !- Name
  Floor,                                  !- Surface Type
  ,                                       !- Construction Name
  {619b24cf-ae61-4e15-8417-e01c341ab1e0}, !- Space Name
  Ground,                                 !- Outside Boundary Condition
  ,                                       !- Outside Boundary Condition Object
  NoSun,                                  !- Sun Exposure
  NoWind,                                 !- Wind Exposure
  ,                                       !- View Factor to Ground
  ,                                       !- Number of Vertices
  -3, 3, 0,                               !- X,Y,Z Vertex 1 {m}
  97, 3, 0,                               !- X,Y,Z Vertex 2 {m}
  94, 0, 0,                               !- X,Y,Z Vertex 3 {m}
  0, 0, 0;                                !- X,Y,Z Vertex 4 {m}

OS:Surface,
  {371b5a2f-c437-4939-9f9f-86f380786209}, !- Handle
  Story 1 North Perimeter Space Exterior Wall, !- Name
  Wall,                                   !- Surface Type
  ,                                       !- Construction Name
  {619b24cf-ae61-4e15-8417-e01c341ab1e0}, !- Space Name
  Outdoors,                               !- Outside Boundary Condition
  ,                                       !- Outside Boundary Condition Object
  SunExposed,                             !- Sun Exposure
  WindExposed,                            !- Wind Exposure
  ,                                       !- View Factor to Ground
  ,                                       !- Number of Vertices
  -3, 3, 4,                               !- X,Y,Z Vertex 1 {m}
  97, 3, 4,                               !- X,Y,Z Vertex 2 {m}
  97, 3, 0,                               !- X,Y,Z Vertex 3 {m}
  -3, 3, 0;                               !- X,Y,Z Vertex 4 {m}

OS:Surface,
  {7e247e61-358b-4e35-ba50-a4d29960b4d7}, !- Handle
  Story 1 North Perimeter Space to Story 1 East Perimeter Space Interior Wall, !- Name
  Wall,                                   !- Surface Type
  ,                                       !- Construction Name
  {619b24cf-ae61-4e15-8417-e01c341ab1e0}, !- Space Name
  Surface,                                !- Outside Boundary Condition
  {f4897776-2e93-4c68-9dd9-13673ddd6143}, !- Outside Boundary Condition Object
  NoSun,                                  !- Sun Exposure
  NoWind,                                 !- Wind Exposure
  ,                                       !- View Factor to Ground
  ,                                       !- Number of Vertices
  97, 3, 4,                               !- X,Y,Z Vertex 1 {m}
  94, 0, 4,                               !- X,Y,Z Vertex 2 {m}
  94, 0, 0,                               !- X,Y,Z Vertex 3 {m}
  97, 3, 0;                               !- X,Y,Z Vertex 4 {m}

OS:Surface,
  {415f8663-be70-47de-b7ab-1014a49df6de}, !- Handle
  Story 1 North Perimeter Space to Story 1 Core Space Interior Wall, !- Name
  Wall,                                   !- Surface Type
  ,                                       !- Construction Name
  {619b24cf-ae61-4e15-8417-e01c341ab1e0}, !- Space Name
  Surface,                                !- Outside Boundary Condition
  {55af5ec2-5de2-42d8-9fef-42efe431a648}, !- Outside Boundary Condition Object
  NoSun,                                  !- Sun Exposure
  NoWind,                                 !- Wind Exposure
  ,                                       !- View Factor to Ground
  ,                                       !- Number of Vertices
  94, 0, 4,                               !- X,Y,Z Vertex 1 {m}
  0, 0, 4,                                !- X,Y,Z Vertex 2 {m}
  0, 0, 0,                                !- X,Y,Z Vertex 3 {m}
  94, 0, 0;                               !- X,Y,Z Vertex 4 {m}

OS:Surface,
  {1f825a72-afb1-45f2-ac4d-fef4942ee2d4}, !- Handle
  Story 1 North Perimeter Space to Story 1 West Perimeter Space Interior Wall, !- Name
  Wall,                                   !- Surface Type
  ,                                       !- Construction Name
  {619b24cf-ae61-4e15-8417-e01c341ab1e0}, !- Space Name
  Surface,                                !- Outside Boundary Condition
  {bd9791a8-e713-47a5-89c7-74a8fcb0b4b0}, !- Outside Boundary Condition Object
  NoSun,                                  !- Sun Exposure
  NoWind,                                 !- Wind Exposure
  ,                                       !- View Factor to Ground
  ,                                       !- Number of Vertices
  0, 0, 4,                                !- X,Y,Z Vertex 1 {m}
  -3, 3, 4,                               !- X,Y,Z Vertex 2 {m}
  -3, 3, 0,                               !- X,Y,Z Vertex 3 {m}
  0, 0, 0;                                !- X,Y,Z Vertex 4 {m}

OS:Surface,
  {3bc47bb0-5182-4c2f-9c02-58f350fc3f41}, !- Handle
  Story 1 North Perimeter Space Exterior Roof, !- Name
  RoofCeiling,                            !- Surface Type
  ,                                       !- Construction Name
  {619b24cf-ae61-4e15-8417-e01c341ab1e0}, !- Space Name
  Outdoors,                               !- Outside Boundary Condition
  ,                                       !- Outside Boundary Condition Object
  SunExposed,                             !- Sun Exposure
  WindExposed,                            !- Wind Exposure
  ,                                       !- View Factor to Ground
  ,                                       !- Number of Vertices
  0, 0, 4,                                !- X,Y,Z Vertex 1 {m}
  94, 0, 4,                               !- X,Y,Z Vertex 2 {m}
  97, 3, 4,                               !- X,Y,Z Vertex 3 {m}
  -3, 3, 4;                               !- X,Y,Z Vertex 4 {m}

OS:Space,
  {6f9a9fb7-c546-4e6a-870f-2c80c229965b}, !- Handle
  Story 1 East Perimeter Space,           !- Name
  ,                                       !- Space Type Name
  ,                                       !- Default Construction Set Name
  ,                                       !- Default Schedule Set Name
  -0,                                     !- Direction of Relative North {deg}
  97,                                     !- X Origin {m}
  3,                                      !- Y Origin {m}
  0,                                      !- Z Origin {m}
  {6932c5e2-f66c-40a1-a35d-f650eaa344dd}, !- Building Story Name
  {baf9860e-2b66-4c47-8c94-ddef28c78ad9}; !- Thermal Zone Name

OS:Surface,
  {03e7e864-9e1a-4af4-9aae-4c168d1070a2}, !- Handle
  Story 1 East Perimeter Space Exterior Ground Floor, !- Name
  Floor,                                  !- Surface Type
  ,                                       !- Construction Name
  {6f9a9fb7-c546-4e6a-870f-2c80c229965b}, !- Space Name
  Ground,                                 !- Outside Boundary Condition
  ,                                       !- Outside Boundary Condition Object
  NoSun,                                  !- Sun Exposure
  NoWind,                                 !- Wind Exposure
  ,                                       !- View Factor to Ground
  ,                                       !- Number of Vertices
  3, 47, 0,                               !- X,Y,Z Vertex 1 {m}
  3, -3, 0,                               !- X,Y,Z Vertex 2 {m}
  0, 0, 0,                                !- X,Y,Z Vertex 3 {m}
  0, 44, 0;                               !- X,Y,Z Vertex 4 {m}

OS:Surface,
  {675b5dc6-cbf9-4ebd-81e4-d83e73d8968d}, !- Handle
  Story 1 East Perimeter Space Exterior Wall, !- Name
  Wall,                                   !- Surface Type
  ,                                       !- Construction Name
  {6f9a9fb7-c546-4e6a-870f-2c80c229965b}, !- Space Name
  Outdoors,                               !- Outside Boundary Condition
  ,                                       !- Outside Boundary Condition Object
  SunExposed,                             !- Sun Exposure
  WindExposed,                            !- Wind Exposure
  ,                                       !- View Factor to Ground
  ,                                       !- Number of Vertices
  3, 47, 4,                               !- X,Y,Z Vertex 1 {m}
  3, -3, 4,                               !- X,Y,Z Vertex 2 {m}
  3, -3, 0,                               !- X,Y,Z Vertex 3 {m}
  3, 47, 0;                               !- X,Y,Z Vertex 4 {m}

OS:Surface,
  {e95a94bf-70e3-4cd2-8b91-34a96cde53be}, !- Handle
  Story 1 East Perimeter Space to Story 1 South Perimeter Space Interior Wall, !- Name
  Wall,                                   !- Surface Type
  ,                                       !- Construction Name
  {6f9a9fb7-c546-4e6a-870f-2c80c229965b}, !- Space Name
  Surface,                                !- Outside Boundary Condition
  {b3bfb6c0-370f-457c-bd02-890182dc52f0}, !- Outside Boundary Condition Object
  NoSun,                                  !- Sun Exposure
  NoWind,                                 !- Wind Exposure
  ,                                       !- View Factor to Ground
  ,                                       !- Number of Vertices
  3, -3, 4,                               !- X,Y,Z Vertex 1 {m}
  0, 0, 4,                                !- X,Y,Z Vertex 2 {m}
  0, 0, 0,                                !- X,Y,Z Vertex 3 {m}
  3, -3, 0;                               !- X,Y,Z Vertex 4 {m}

OS:Surface,
  {1c9cf376-787b-46be-9bc6-6ee2c668dea8}, !- Handle
  Story 1 East Perimeter Space to Story 1 Core Space Interior Wall, !- Name
  Wall,                                   !- Surface Type
  ,                                       !- Construction Name
  {6f9a9fb7-c546-4e6a-870f-2c80c229965b}, !- Space Name
  Surface,                                !- Outside Boundary Condition
  {39cd9e15-341b-4fb0-b7aa-795558d3eef1}, !- Outside Boundary Condition Object
  NoSun,                                  !- Sun Exposure
  NoWind,                                 !- Wind Exposure
  ,                                       !- View Factor to Ground
  ,                                       !- Number of Vertices
  0, 0, 4,                                !- X,Y,Z Vertex 1 {m}
  0, 44, 4,                               !- X,Y,Z Vertex 2 {m}
  0, 44, 0,                               !- X,Y,Z Vertex 3 {m}
  0, 0, 0;                                !- X,Y,Z Vertex 4 {m}

OS:Surface,
  {f4897776-2e93-4c68-9dd9-13673ddd6143}, !- Handle
  Story 1 East Perimeter Space to Story 1 North Perimeter Space Interior Wall, !- Name
  Wall,                                   !- Surface Type
  ,                                       !- Construction Name
  {6f9a9fb7-c546-4e6a-870f-2c80c229965b}, !- Space Name
  Surface,                                !- Outside Boundary Condition
  {7e247e61-358b-4e35-ba50-a4d29960b4d7}, !- Outside Boundary Condition Object
  NoSun,                                  !- Sun Exposure
  NoWind,                                 !- Wind Exposure
  ,                                       !- View Factor to Ground
  ,                                       !- Number of Vertices
  0, 44, 4,                               !- X,Y,Z Vertex 1 {m}
  3, 47, 4,                               !- X,Y,Z Vertex 2 {m}
  3, 47, 0,                               !- X,Y,Z Vertex 3 {m}
  0, 44, 0;                               !- X,Y,Z Vertex 4 {m}

OS:Surface,
  {c29450f5-f4eb-4a82-818b-07b261151676}, !- Handle
  Story 1 East Perimeter Space Exterior Roof, !- Name
  RoofCeiling,                            !- Surface Type
  ,                                       !- Construction Name
  {6f9a9fb7-c546-4e6a-870f-2c80c229965b}, !- Space Name
  Outdoors,                               !- Outside Boundary Condition
  ,                                       !- Outside Boundary Condition Object
  SunExposed,                             !- Sun Exposure
  WindExposed,                            !- Wind Exposure
  ,                                       !- View Factor to Ground
  ,                                       !- Number of Vertices
  0, 44, 4,                               !- X,Y,Z Vertex 1 {m}
  0, 0, 4,                                !- X,Y,Z Vertex 2 {m}
  3, -3, 4,                               !- X,Y,Z Vertex 3 {m}
  3, 47, 4;                               !- X,Y,Z Vertex 4 {m}

OS:Space,
  {3d0250cc-99e9-4e95-84c7-4febe0e7c9de}, !- Handle
  Story 1 South Perimeter Space,          !- Name
  ,                                       !- Space Type Name
  ,                                       !- Default Construction Set Name
  ,                                       !- Default Schedule Set Name
  -0,                                     !- Direction of Relative North {deg}
  0,                                      !- X Origin {m}
  0,                                      !- Y Origin {m}
  0,                                      !- Z Origin {m}
  {6932c5e2-f66c-40a1-a35d-f650eaa344dd}, !- Building Story Name
  {937f170e-0dce-4b63-8d7a-b25e86a757cc}; !- Thermal Zone Name

OS:Surface,
  {a3b59223-f25f-4f8d-b55a-f8def6f46960}, !- Handle
  Story 1 South Perimeter Space Exterior Ground Floor, !- Name
  Floor,                                  !- Surface Type
  ,                                       !- Construction Name
  {3d0250cc-99e9-4e95-84c7-4febe0e7c9de}, !- Space Name
  Ground,                                 !- Outside Boundary Condition
  ,                                       !- Outside Boundary Condition Object
  NoSun,                                  !- Sun Exposure
  NoWind,                                 !- Wind Exposure
  ,                                       !- View Factor to Ground
  ,                                       !- Number of Vertices
  100, 0, 0,                              !- X,Y,Z Vertex 1 {m}
  0, 0, 0,                                !- X,Y,Z Vertex 2 {m}
  3, 3, 0,                                !- X,Y,Z Vertex 3 {m}
  97, 3, 0;                               !- X,Y,Z Vertex 4 {m}

OS:Surface,
  {57f6220d-f724-4297-9a56-f206123983d7}, !- Handle
  Story 1 South Perimeter Space Exterior Wall, !- Name
  Wall,                                   !- Surface Type
  ,                                       !- Construction Name
  {3d0250cc-99e9-4e95-84c7-4febe0e7c9de}, !- Space Name
  Outdoors,                               !- Outside Boundary Condition
  ,                                       !- Outside Boundary Condition Object
  SunExposed,                             !- Sun Exposure
  WindExposed,                            !- Wind Exposure
  ,                                       !- View Factor to Ground
  ,                                       !- Number of Vertices
  100, 0, 4,                              !- X,Y,Z Vertex 1 {m}
  0, 0, 4,                                !- X,Y,Z Vertex 2 {m}
  0, 0, 0,                                !- X,Y,Z Vertex 3 {m}
  100, 0, 0;                              !- X,Y,Z Vertex 4 {m}

OS:Surface,
  {3efec953-5afd-4269-b86c-738a09252fd4}, !- Handle
  Story 1 South Perimeter Space to Story 1 West Perimeter Space Interior Wall, !- Name
  Wall,                                   !- Surface Type
  ,                                       !- Construction Name
  {3d0250cc-99e9-4e95-84c7-4febe0e7c9de}, !- Space Name
  Surface,                                !- Outside Boundary Condition
  {17f2cdc2-684c-4515-8423-39635a37f4cb}, !- Outside Boundary Condition Object
  NoSun,                                  !- Sun Exposure
  NoWind,                                 !- Wind Exposure
  ,                                       !- View Factor to Ground
  ,                                       !- Number of Vertices
  0, 0, 4,                                !- X,Y,Z Vertex 1 {m}
  3, 3, 4,                                !- X,Y,Z Vertex 2 {m}
  3, 3, 0,                                !- X,Y,Z Vertex 3 {m}
  0, 0, 0;                                !- X,Y,Z Vertex 4 {m}

OS:Surface,
  {29072c8f-7889-45cf-9d05-91b5481a4599}, !- Handle
  Story 1 South Perimeter Space to Story 1 Core Space Interior Wall, !- Name
  Wall,                                   !- Surface Type
  ,                                       !- Construction Name
  {3d0250cc-99e9-4e95-84c7-4febe0e7c9de}, !- Space Name
  Surface,                                !- Outside Boundary Condition
  {04475a27-8dea-400a-a1f2-312d7cd2d4db}, !- Outside Boundary Condition Object
  NoSun,                                  !- Sun Exposure
  NoWind,                                 !- Wind Exposure
  ,                                       !- View Factor to Ground
  ,                                       !- Number of Vertices
  3, 3, 4,                                !- X,Y,Z Vertex 1 {m}
  97, 3, 4,                               !- X,Y,Z Vertex 2 {m}
  97, 3, 0,                               !- X,Y,Z Vertex 3 {m}
  3, 3, 0;                                !- X,Y,Z Vertex 4 {m}

OS:Surface,
  {b3bfb6c0-370f-457c-bd02-890182dc52f0}, !- Handle
  Story 1 South Perimeter Space to Story 1 East Perimeter Space Interior Wall, !- Name
  Wall,                                   !- Surface Type
  ,                                       !- Construction Name
  {3d0250cc-99e9-4e95-84c7-4febe0e7c9de}, !- Space Name
  Surface,                                !- Outside Boundary Condition
  {e95a94bf-70e3-4cd2-8b91-34a96cde53be}, !- Outside Boundary Condition Object
  NoSun,                                  !- Sun Exposure
  NoWind,                                 !- Wind Exposure
  ,                                       !- View Factor to Ground
  ,                                       !- Number of Vertices
  97, 3, 4,                               !- X,Y,Z Vertex 1 {m}
  100, 0, 4,                              !- X,Y,Z Vertex 2 {m}
  100, 0, 0,                              !- X,Y,Z Vertex 3 {m}
  97, 3, 0;                               !- X,Y,Z Vertex 4 {m}

OS:Surface,
  {5f9148bf-ae13-47ab-bacf-d7c9a7e607c1}, !- Handle
  Story 1 South Perimeter Space Exterior Roof, !- Name
  RoofCeiling,                            !- Surface Type
  ,                                       !- Construction Name
  {3d0250cc-99e9-4e95-84c7-4febe0e7c9de}, !- Space Name
  Outdoors,                               !- Outside Boundary Condition
  ,                                       !- Outside Boundary Condition Object
  SunExposed,                             !- Sun Exposure
  WindExposed,                            !- Wind Exposure
  ,                                       !- View Factor to Ground
  ,                                       !- Number of Vertices
  97, 3, 4,                               !- X,Y,Z Vertex 1 {m}
  3, 3, 4,                                !- X,Y,Z Vertex 2 {m}
  0, 0, 4,                                !- X,Y,Z Vertex 3 {m}
  100, 0, 4;                              !- X,Y,Z Vertex 4 {m}

OS:Space,
  {1c011428-10ef-4b95-a37c-7713c6c72518}, !- Handle
  Story 1 Core Space,                     !- Name
  ,                                       !- Space Type Name
  ,                                       !- Default Construction Set Name
  ,                                       !- Default Schedule Set Name
  -0,                                     !- Direction of Relative North {deg}
  3,                                      !- X Origin {m}
  3,                                      !- Y Origin {m}
  0,                                      !- Z Origin {m}
  {6932c5e2-f66c-40a1-a35d-f650eaa344dd}, !- Building Story Name
  {7637e822-9e58-411f-9edd-7c1a332f4b60}; !- Thermal Zone Name

OS:Surface,
  {b1605050-8833-4ba2-90f4-7a52537d7dfa}, !- Handle
  Story 1 Core Space Exterior Ground Floor, !- Name
  Floor,                                  !- Surface Type
  ,                                       !- Construction Name
  {1c011428-10ef-4b95-a37c-7713c6c72518}, !- Space Name
  Ground,                                 !- Outside Boundary Condition
  ,                                       !- Outside Boundary Condition Object
  NoSun,                                  !- Sun Exposure
  NoWind,                                 !- Wind Exposure
  ,                                       !- View Factor to Ground
  ,                                       !- Number of Vertices
  0, 0, 0,                                !- X,Y,Z Vertex 1 {m}
  0, 44, 0,                               !- X,Y,Z Vertex 2 {m}
  94, 44, 0,                              !- X,Y,Z Vertex 3 {m}
  94, 0, 0;                               !- X,Y,Z Vertex 4 {m}

OS:Surface,
  {2d79c610-9de3-4659-8d74-8d635edb2b7d}, !- Handle
  Story 1 Core Space to Story 1 West Perimeter Space Interior Wall, !- Name
  Wall,                                   !- Surface Type
  ,                                       !- Construction Name
  {1c011428-10ef-4b95-a37c-7713c6c72518}, !- Space Name
  Surface,                                !- Outside Boundary Condition
  {2a558b5c-2ad2-4896-8455-8dc4d863e56e}, !- Outside Boundary Condition Object
  NoSun,                                  !- Sun Exposure
  NoWind,                                 !- Wind Exposure
  ,                                       !- View Factor to Ground
  ,                                       !- Number of Vertices
  0, 0, 4,                                !- X,Y,Z Vertex 1 {m}
  0, 44, 4,                               !- X,Y,Z Vertex 2 {m}
  0, 44, 0,                               !- X,Y,Z Vertex 3 {m}
  0, 0, 0;                                !- X,Y,Z Vertex 4 {m}

OS:Surface,
  {55af5ec2-5de2-42d8-9fef-42efe431a648}, !- Handle
  Story 1 Core Space to Story 1 North Perimeter Space Interior Wall, !- Name
  Wall,                                   !- Surface Type